data_image0
_chemical_formula_structural       Si474O360
_chemical_formula_sum              "Si474 O360"
_cell_length_a       11.547838234804036
_cell_length_b       23.41424971166734
_cell_length_c       52.58698252402034
_cell_angle_alpha    90.0
_cell_angle_beta     90.0
_cell_angle_gamma    85.284975828499

_space_group_name_H-M_alt    "P 1"
_space_group_IT_number       1

loop_
  _space_group_symop_operation_xyz
  'x, y, z'

loop_
  _atom_site_type_symbol
  _atom_site_label
  _atom_site_symmetry_multiplicity
  _atom_site_fract_x
  _atom_site_fract_y
  _atom_site_fract_z
  _atom_site_occupancy
  Si  Si1       1.0  0.16019240636443793  0.6087481989298723  0.9438472366355773  1.0000
  Si  Si2       1.0  0.8980536118047141  0.6250866668805345  0.937743241017396  1.0000
  Si  Si3       1.0  0.1053810743252123  0.43402534712152446  0.9400477726597021  1.0000
  Si  Si4       1.0  0.290548064992902  0.34660985261183186  0.9597388191221421  1.0000
  Si  Si5       1.0  0.5314994839260412  0.6009474409089514  0.9470757443774402  1.0000
  Si  Si6       1.0  0.7919587817547251  0.42284410524176924  0.9339724100344732  1.0000
  Si  Si7       1.0  0.8846992981592124  0.3037488538866919  0.949272184094194  1.0000
  Si  Si8       1.0  0.11981082224216467  0.1574983790756172  0.9462580023976573  1.0000
  Si  Si9       1.0  0.3139763893589191  0.0035086665570842955  0.9507156326998508  1.0000
  Si  Si10      1.0  0.4007373234971056  0.45719438414453684  0.9450014185259773  1.0000
  Si  Si11      1.0  0.6170914170786568  0.27730282555589947  0.94932466680888  1.0000
  Si  Si12      1.0  0.7393601754551393  0.16540012217521216  0.9365969949711912  1.0000
  Si  Si13      1.0  0.902889871162326  0.9250093630146411  0.9585840429097541  1.0000
  Si  Si14      1.0  0.1186635177682991  0.7618896097826298  0.9493343457365454  1.0000
  Si  Si15      1.0  0.39395363995350113  0.18377934468548118  0.9455324606900195  1.0000
  Si  Si16      1.0  0.7298978200056857  0.9656968258557707  0.9433248971043551  1.0000
  Si  Si17      1.0  0.03955084207634122  0.8738754344591775  0.9340912440500424  1.0000
  Si  Si18      1.0  0.9787306597505037  0.7651598980042975  0.9150146634810438  1.0000
  Si  Si19      1.0  0.6180983233890311  0.866653955474259  0.9441133176451431  1.0000
  Si  Si20      1.0  0.5524795322799686  0.7352617918576938  0.945578204801671  1.0000
  Si  Si21      1.0  0.36982986548291025  0.7735223957264835  0.9327441900587311  1.0000
  Si  Si22      1.0  0.3745384645339944  0.5301175444225681  0.9785333295496712  1.0000
  Si  Si23      1.0  0.19845891371011024  0.5857608753107728  0.9880820083899269  1.0000
  Si  Si24      1.0  0.5983449006100461  0.40985747664022054  0.009319221485586268  1.0000
  Si  Si25      1.0  0.5926979594382721  0.30726334294326935  0.9934286271766498  1.0000
  Si  Si26      1.0  0.8144713393457572  0.6413706064701978  0.9787728738322178  1.0000
  Si  Si27      1.0  0.05016145286613539  0.4579412672071272  0.9953737643149764  1.0000
  Si  Si28      1.0  0.2660089461465783  0.30584843354803687  0.9991291596660938  1.0000
  Si  Si29      1.0  0.4499821430624592  0.16462412201691573  0.991087907624168  1.0000
  Si  Si30      1.0  0.6559714585667932  0.0075482774262382885  6.0913469948520316e-05  1.0000
  Si  Si31      1.0  0.752253829729601  0.4471310567678493  0.9825903624760718  1.0000
  Si  Si32      1.0  0.9301164580998758  0.2982004036672627  0.9932786939132914  1.0000
  Si  Si33      1.0  0.11475670127300325  0.15320888182934575  0.9921001398771914  1.0000
  Si  Si34      1.0  0.3237966050552094  0.010459040839231184  0.9954255783337548  1.0000
  Si  Si35      1.0  0.5219134761905029  0.8650468402060304  0.9997914561286089  1.0000
  Si  Si36      1.0  0.7958137038759655  0.15791803043807162  0.9928459551192447  1.0000
  Si  Si37      1.0  0.9807844482761732  0.0048106076104318645  0.9992336409794585  1.0000
  Si  Si38      1.0  0.1882757593662936  0.8620890448281948  0.004342622296224902  1.0000
  Si  Si39      1.0  0.3927600937767679  0.7150528314240397  0.9953530332532698  1.0000
  Si  Si40      1.0  0.856721018205643  0.8714057414155629  0.9970707683075373  1.0000
  Si  Si41      1.0  0.06141415251222377  0.7172696840831534  0.0022309706978606604  1.0000
  Si  Si42      1.0  0.6893971991622454  0.7227956260312021  0.994418719184234  1.0000
  Si  Si43      1.0  0.47007638092329906  0.49964350706328575  0.01528858010502434  1.0000
  Si  Si44      1.0  0.051420290868712464  0.5517218014573845  0.013459222180635768  1.0000
  Si  Si45      1.0  0.22563146393538794  0.40317291716873144  0.01249642790019054  1.0000
  Si  Si46      1.0  0.4418738822591356  0.2560200974988192  0.01135197678108497  1.0000
  Si  Si47      1.0  0.6114157694585403  0.5687830634973142  0.01676807322985732  1.0000
  Si  Si48      1.0  0.9059190578180154  0.39663024051655976  0.007359607947142047  1.0000
  Si  Si49      1.0  0.10615250609894535  0.24959955715437623  0.007693716670569458  1.0000
  Si  Si50      1.0  0.29785008187668516  0.1098178613457347  0.007299691683672075  1.0000
  Si  Si51      1.0  0.4937714377567623  0.9619096845506646  0.013718015038616993  1.0000
  Si  Si52      1.0  0.7257265889741892  0.5515509551613041  0.981262400922695  1.0000
  Si  Si53      1.0  0.7686422719291756  0.25380506352309035  0.009397986447962805  1.0000
  Si  Si54      1.0  0.9629889619512858  0.10490360615112154  0.009665392272086234  1.0000
  Si  Si55      1.0  0.1658431608634452  0.9620279999605479  0.011738505888183204  1.0000
  Si  Si56      1.0  0.36669776108063323  0.8099616384532495  0.011790708843520032  1.0000
  Si  Si57      1.0  0.6288051238932418  0.10983811294811203  0.005414679158857186  1.0000
  Si  Si58      1.0  0.827482203616039  0.9615416285403144  0.01819897237235193  1.0000
  Si  Si59      1.0  0.0219177755226269  0.8163656200195216  0.014605089313675317  1.0000
  Si  Si60      1.0  0.23903845254732478  0.6703034287737538  0.01261309825862378  1.0000
  Si  Si61      1.0  0.7024393213977236  0.8179894888076188  0.012897649331565928  1.0000
  Si  Si62      1.0  0.9379244311648612  0.643972501027091  0.013536427295003102  1.0000
  Si  Si63      1.0  0.5540824463256122  0.6707095245490237  0.017274167535379477  1.0000
  Si  Si64      1.0  0.7171745445184033  0.5398702809299561  0.05514880169204056  1.0000
  Si  Si65      1.0  0.40036521012506004  0.5283625826656897  0.056202301178813634  1.0000
  Si  Si66      1.0  0.594055007180658  0.39324358452054065  0.05465717096597273  1.0000
  Si  Si67      1.0  0.7763078525550868  0.24912922995506345  0.05480466403607725  1.0000
  Si  Si68      1.0  0.06762245959540254  0.5360286952663765  0.057452376991206415  1.0000
  Si  Si69      1.0  0.24910034723319777  0.3943245378867681  0.05615970062459896  1.0000
  Si  Si70      1.0  0.44505389118696986  0.24988835200817283  0.05588199027692253  1.0000
  Si  Si71      1.0  0.6343993340329798  0.1070229094528442  0.05261835665577672  1.0000
  Si  Si72      1.0  0.8267349123530772  0.9616687065080781  0.061648257901452855  1.0000
  Si  Si73      1.0  0.9159124375316061  0.39423987544326144  0.052946593629482445  1.0000
  Si  Si74      1.0  0.1085672723822458  0.24887366097552652  0.053343076783663734  1.0000
  Si  Si75      1.0  0.3003564964042554  0.10667621713768481  0.053398530796425696  1.0000
  Si  Si76      1.0  0.4917631421027624  0.9621542654882161  0.058328444776213025  1.0000
  Si  Si77      1.0  0.6901182955903873  0.8188431742930331  0.058013318773453115  1.0000
  Si  Si78      1.0  0.9674480607575037  0.10469308747477311  0.05511664053506169  1.0000
  Si  Si79      1.0  0.1615437072499932  0.9620943240082586  0.05722476397130111  1.0000
  Si  Si80      1.0  0.35097552787795444  0.8196384350793187  0.05700627609562291  1.0000
  Si  Si81      1.0  0.5452278743133191  0.6790474708640281  0.060771219180340966  1.0000
  Si  Si82      1.0  0.019081196456453484  0.8178818730404787  0.05905461684707785  1.0000
  Si  Si83      1.0  0.21465134668629463  0.6716031805632465  0.05738580903214162  1.0000
  Si  Si84      1.0  0.8783934319370151  0.6717232747979549  0.05621826758456084  1.0000
  Si  Si85      1.0  0.5743196775925933  0.485582104535026  0.07299193125117436  1.0000
  Si  Si86      1.0  0.23818312641097159  0.4868605934992105  0.0723844318080297  1.0000
  Si  Si87      1.0  0.4293487830504862  0.34640582404978165  0.06907239588506257  1.0000
  Si  Si88      1.0  0.6191816221082931  0.20050172392815627  0.07032698215971456  1.0000
  Si  Si89      1.0  0.8985101677806566  0.49015111024205976  0.06785071838587055  1.0000
  Si  Si90      1.0  0.0891348811078196  0.3444077996189309  0.06873568068578466  1.0000
  Si  Si91      1.0  0.28376120928184234  0.2013706374789489  0.06948579497085478  1.0000
  Si  Si92      1.0  0.4761280777175914  0.05986226382767523  0.06993930980010185  1.0000
  Si  Si93      1.0  0.666117973245746  0.913621585781835  0.07391024967490102  1.0000
  Si  Si94      1.0  0.7643314899495878  0.34425252819326735  0.07026031894323512  1.0000
  Si  Si95      1.0  0.9515700974346221  0.20050017477108645  0.06970607991864976  1.0000
  Si  Si96      1.0  0.1438062827134849  0.05875820203612073  0.07062170536793289  1.0000
  Si  Si97      1.0  0.3337284639527456  0.9141597528754689  0.07304346895252016  1.0000
  Si  Si98      1.0  0.5261872616316983  0.7746353411000649  0.07340108515328639  1.0000
  Si  Si99      1.0  0.8065552947539776  0.0598537391441022  0.07113612095334214  1.0000
  Si  Si100     1.0  0.0049103851161834975  0.913815341836113  0.07361983220337137  1.0000
  Si  Si101     1.0  0.19598776662926304  0.7687159025084871  0.07177581605820263  1.0000
  Si  Si102     1.0  0.38882757644722044  0.6250917872248515  0.07200336789186287  1.0000
  Si  Si103     1.0  0.8615608600131727  0.7679657694155341  0.07233335907346515  1.0000
  Si  Si104     1.0  0.0519240284880111  0.6289994502981794  0.07386511378221283  1.0000
  Si  Si105     1.0  0.7185105397560918  0.6299498232258788  0.074054648547693  1.0000
  Si  Si106     1.0  0.9005210541612043  0.4872500216855698  0.11358562088767186  1.0000
  Si  Si107     1.0  0.5714013894804123  0.48517230192227256  0.11709714572779086  1.0000
  Si  Si108     1.0  0.7625392335326658  0.3435762118373052  0.11540366826196892  1.0000
  Si  Si109     1.0  0.9517869015724914  0.19931449896804088  0.11543961891000498  1.0000
  Si  Si110     1.0  0.23730873609439146  0.48625608433773454  0.1166449162394543  1.0000
  Si  Si111     1.0  0.42697790059286644  0.3436993393808319  0.1142607612778584  1.0000
  Si  Si112     1.0  0.6190356071218045  0.19937006920976402  0.11561592993328465  1.0000
  Si  Si113     1.0  0.8078049653204012  0.0580451107184897  0.11626527489968204  1.0000
  Si  Si114     1.0  0.0024036042583259754  0.9142038244819568  0.11824456254853044  1.0000
  Si  Si115     1.0  0.09132128597553836  0.3423898894222286  0.11393401181106497  1.0000
  Si  Si116     1.0  0.2840953571813332  0.19928291270719747  0.1149341844826187  1.0000
  Si  Si117     1.0  0.4755702156817764  0.05801524873782579  0.11566893070583757  1.0000
  Si  Si118     1.0  0.6657488412273868  0.9136235180499017  0.11861413607922547  1.0000
  Si  Si119     1.0  0.858842493291297  0.769580272817711  0.11752679373981892  1.0000
  Si  Si120     1.0  0.14278687118840494  0.05776333902348225  0.11614874942691505  1.0000
  Si  Si121     1.0  0.3332049188786803  0.914116147401145  0.11811000513221989  1.0000
  Si  Si122     1.0  0.5237282166931498  0.7729240628076112  0.11830958475813218  1.0000
  Si  Si123     1.0  0.718204292125208  0.6287830427842555  0.11815488547497244  1.0000
  Si  Si124     1.0  0.19274524097724002  0.7704242746401135  0.11695002167866965  1.0000
  Si  Si125     1.0  0.3842123042158507  0.6263382818075673  0.11676282892435058  1.0000
  Si  Si126     1.0  0.049042386712518815  0.6287109977026056  0.11839287814919144  1.0000
  Si  Si127     1.0  0.7466282548321349  0.43906455650961856  0.13089932469610238  1.0000
  Si  Si128     1.0  0.411472643044113  0.43749614532563746  0.13069232861879318  1.0000
  Si  Si129     1.0  0.6019305655142192  0.2958618061851001  0.12925134237727634  1.0000
  Si  Si130     1.0  0.7931197838954372  0.1520792617530802  0.13158847347324407  1.0000
  Si  Si131     1.0  0.0750310772744848  0.4381861980914837  0.1284909967293446  1.0000
  Si  Si132     1.0  0.26703782831413003  0.2950621346405676  0.12885381258384407  1.0000
  Si  Si133     1.0  0.4591851064109842  0.15259326007056354  0.13119806755880276  1.0000
  Si  Si134     1.0  0.6495874522098306  0.010367782204775496  0.1319007099072798  1.0000
  Si  Si135     1.0  0.8427969387710446  0.8657041247018236  0.13239874143985608  1.0000
  Si  Si136     1.0  0.935698784628089  0.29449700251775995  0.13041167184801805  1.0000
  Si  Si137     1.0  0.12653194604734547  0.15253217376157732  0.1317021254953442  1.0000
  Si  Si138     1.0  0.31710007236681814  0.010332358444424419  0.13183680541535608  1.0000
  Si  Si139     1.0  0.5069037645620501  0.8673511218809534  0.13419639411286924  1.0000
  Si  Si140     1.0  0.6980429502350013  0.7239156646171017  0.13253545578920511  1.0000
  Si  Si141     1.0  0.9834858921130077  0.010718463341408215  0.13182572977130796  1.0000
  Si  Si142     1.0  0.17540350499680102  0.8655836657190824  0.13295099879911293  1.0000
  Si  Si143     1.0  0.3660344857935699  0.7220595975373467  0.13188728746001013  1.0000
  Si  Si144     1.0  0.5590430757029758  0.5802909635442002  0.13176116883555836  1.0000
  Si  Si145     1.0  0.03430159135733584  0.7239518992319481  0.13296531545057047  1.0000
  Si  Si146     1.0  0.22421980785525517  0.5806957040855851  0.13200847123580653  1.0000
  Si  Si147     1.0  0.8903024906916596  0.5795319323502653  0.13220442317116038  1.0000
  Si  Si148     1.0  0.07582479206242067  0.43698776714221266  0.17321135028311246  1.0000
  Si  Si149     1.0  0.7438499243056814  0.43995116592816785  0.17589972465095957  1.0000
  Si  Si150     1.0  0.9350817528929498  0.29357907502763564  0.17545428604095184  1.0000
  Si  Si151     1.0  0.1273924479011987  0.15142568133496942  0.17751065723605902  1.0000
  Si  Si152     1.0  0.410725208982189  0.4363890553077559  0.175131517572686  1.0000
  Si  Si153     1.0  0.6013847219497168  0.29541039223877896  0.17410039271255104  1.0000
  Si  Si154     1.0  0.7926655128444359  0.15018977523585456  0.17678426661300792  1.0000
  Si  Si155     1.0  0.9832377419924395  0.010245165580189335  0.1772336715487105  1.0000
  Si  Si156     1.0  0.172785981411729  0.8658485097396135  0.17791747163143204  1.0000
  Si  Si157     1.0  0.2654742800296307  0.2932958389023172  0.17393482589197862  1.0000
  Si  Si158     1.0  0.4597532321141076  0.15165899318504958  0.176682981531713  1.0000
  Si  Si159     1.0  0.6498883169032458  0.009623044086372764  0.17728429771838633  1.0000
  Si  Si160     1.0  0.8419324904972071  0.8656746779769855  0.17758230032374292  1.0000
  Si  Si161     1.0  0.03260014076969346  0.7233121930423734  0.1779223436014083  1.0000
  Si  Si162     1.0  0.31662507040982324  0.009532298342144316  0.17734499455145794  1.0000
  Si  Si163     1.0  0.5067473392466674  0.8667518777390955  0.17916870672502092  1.0000
  Si  Si164     1.0  0.6959536691567281  0.7227627409024169  0.1770930306838991  1.0000
  Si  Si165     1.0  0.8874627514895871  0.5785587919355569  0.17703205120483248  1.0000
  Si  Si166     1.0  0.3623999540137379  0.7215520478985725  0.17697517839037438  1.0000
  Si  Si167     1.0  0.5563467133876355  0.5798785410742985  0.17623826532672218  1.0000
  Si  Si168     1.0  0.22240933178758693  0.5794656568219195  0.1764416062275833  1.0000
  Si  Si169     1.0  0.9181977008178651  0.39038701320989194  0.18854434330532466  1.0000
  Si  Si170     1.0  0.5863146747200297  0.3901683081741908  0.18974419298240358  1.0000
  Si  Si171     1.0  0.7738013361872681  0.24613913819035332  0.18928183134207  1.0000
  Si  Si172     1.0  0.967961991613638  0.10492749941853043  0.1934238573634434  1.0000
  Si  Si173     1.0  0.2492705098427788  0.3883588119196123  0.18793859868239543  1.0000
  Si  Si174     1.0  0.44209466290463184  0.24891994475564896  0.18910316366522223  1.0000
  Si  Si175     1.0  0.6329894007409286  0.10399695934906211  0.19331098961148047  1.0000
  Si  Si176     1.0  0.8254908243776884  0.9617583453491195  0.1924099005866756  1.0000
  Si  Si177     1.0  0.014880359564705273  0.81821464379908  0.1937105251522467  1.0000
  Si  Si178     1.0  0.10927553044357001  0.24696271648846693  0.19203331889954503  1.0000
  Si  Si179     1.0  0.303316894123029  0.10380551614974343  0.19332663408964812  1.0000
  Si  Si180     1.0  0.4912852399969747  0.9633528552374859  0.1934141404701083  1.0000
  Si  Si181     1.0  0.6835814741066983  0.8173410751661973  0.19233325195223153  1.0000
  Si  Si182     1.0  0.8718870377874175  0.6747261074813431  0.19068661565473247  1.0000
  Si  Si183     1.0  0.1566427676968748  0.9618017913849191  0.192699835518634  1.0000
  Si  Si184     1.0  0.3466663412758504  0.816918916134234  0.19199006739335792  1.0000
  Si  Si185     1.0  0.5369143443648651  0.6742309068908807  0.19162146935883204  1.0000
  Si  Si186     1.0  0.7269803842803005  0.5341735320129967  0.19368237456575274  1.0000
  Si  Si187     1.0  0.2051762753755339  0.673076558861569  0.19298532691173956  1.0000
  Si  Si188     1.0  0.3980908841005196  0.5315556992604086  0.18996251076845938  1.0000
  Si  Si189     1.0  0.0639992039695983  0.5304225609987955  0.18996130131324926  1.0000
  Si  Si190     1.0  0.24833266615369567  0.38786248405314355  0.23229696434132058  1.0000
  Si  Si191     1.0  0.9142751736429139  0.3905359548511459  0.2326539229021474  1.0000
  Si  Si192     1.0  0.1064815233196694  0.24812257945369454  0.23796326713524668  1.0000
  Si  Si193     1.0  0.30735222148578983  0.10297809879651981  0.2392312482286578  1.0000
  Si  Si194     1.0  0.5830134435520906  0.39055423922083043  0.23448083302683684  1.0000
  Si  Si195     1.0  0.7732975393188971  0.24592835444022662  0.2336713307687342  1.0000
  Si  Si196     1.0  0.9679536525561703  0.10534738877528366  0.23928317148359554  1.0000
  Si  Si197     1.0  0.15481510416455072  0.9615131760296315  0.23825653541876068  1.0000
  Si  Si198     1.0  0.3432950950450805  0.8163499017765671  0.23651729825758255  1.0000
  Si  Si199     1.0  0.4410978472137623  0.24983846773719814  0.2336606336080872  1.0000
  Si  Si200     1.0  0.6321348799810158  0.10396270030202286  0.23944552675842232  1.0000
  Si  Si201     1.0  0.8264948442621506  0.9608052836506604  0.23785045391198767  1.0000
  Si  Si202     1.0  0.015284141106411086  0.8168570398492497  0.23912789491498332  1.0000
  Si  Si203     1.0  0.20458741410500714  0.668958508536719  0.2383680728871317  1.0000
  Si  Si204     1.0  0.49243062610028226  0.9637824009463596  0.2388951219850209  1.0000
  Si  Si205     1.0  0.6848373007438999  0.8147172355173882  0.23697137665405818  1.0000
  Si  Si206     1.0  0.8705407141068693  0.6741139748699986  0.23507111456439836  1.0000
  Si  Si207     1.0  0.24330836366536934  0.4810424119681592  0.24706943965962125  1.0000
  Si  Si208     1.0  0.5340171757124039  0.674090736738293  0.2363363473730998  1.0000
  Si  Si209     1.0  0.9040027554574985  0.4845641662746725  0.2491817350142608  1.0000
  Si  Si210     1.0  0.40210926109084977  0.5297153526648755  0.23424918903976388  1.0000
  Si  Si211     1.0  0.08605159269483645  0.3459064505239549  0.24941147466502858  1.0000
  Si  Si212     1.0  0.7581233501439422  0.34119086866398085  0.24683567026061867  1.0000
  Si  Si213     1.0  0.9423701663118715  0.20256236561637364  0.2529937636737952  1.0000
  Si  Si214     1.0  0.14506309651002314  0.05680246374455383  0.25400597378826006  1.0000
  Si  Si215     1.0  0.5653298451627697  0.50539877382267  0.33141044173887346  1.0000
  Si  Si216     1.0  0.6111646012386094  0.20267346731689703  0.2507277244359369  1.0000
  Si  Si217     1.0  0.8098695010388682  0.0562810295836989  0.25414508303067873  1.0000
  Si  Si218     1.0  0.9978529755131865  0.9123105775382475  0.2550852226912386  1.0000
  Si  Si219     1.0  0.18926540480454607  0.7646552820772247  0.252482870026537  1.0000
  Si  Si220     1.0  0.2895135693957591  0.201224878874308  0.25056025103515794  1.0000
  Si  Si221     1.0  0.4800558162186638  0.05656581169060137  0.25968065325791195  1.0000
  Si  Si222     1.0  0.6673913239740225  0.9107451930721308  0.2506165391288634  1.0000
  Si  Si223     1.0  0.858982635409947  0.7658603632992664  0.2532604441111752  1.0000
  Si  Si224     1.0  0.037549651549264845  0.6215486332728776  0.25047825185222267  1.0000
  Si  Si225     1.0  0.3325572865072399  0.9125606848966026  0.2502634960009083  1.0000
  Si  Si226     1.0  0.5189926082611963  0.7699179536529064  0.2498642578588375  1.0000
  Si  Si227     1.0  0.7259179369537095  0.5366982130488135  0.23998295560190258  1.0000
  Si  Si228     1.0  0.06516722428304914  0.5287868032821262  0.23438719508330677  1.0000
  Si  Si229     1.0  0.38288295158144803  0.621196334584098  0.2527692275218187  1.0000
  Si  Si230     1.0  0.5698988406077726  0.4827382591269933  0.2525952259940486  1.0000
  Si  Si231     1.0  0.29079686981323466  0.4641284989284005  0.28968837744286974  1.0000
  Si  Si232     1.0  0.42181996012921225  0.3453294785961823  0.24933954239361003  1.0000
  Si  Si233     1.0  0.8789284555490728  0.223021681850501  0.29613426121353803  1.0000
  Si  Si234     1.0  0.05970130240656136  0.24579748250410777  0.3111168191981137  1.0000
  Si  Si235     1.0  0.3567650852250738  0.1958848402700272  0.2926157909663531  1.0000
  Si  Si236     1.0  0.02208039782808151  0.3377381832333317  0.2915454947942103  1.0000
  Si  Si237     1.0  0.8927359282652961  0.4839520950046272  0.29315227131083976  1.0000
  Si  Si238     1.0  0.19691491302961955  0.1564645681862783  0.31190542312078706  1.0000
  Si  Si239     1.0  0.33632033462391725  0.9022717091668209  0.2941157630737843  1.0000
  Si  Si240     1.0  0.5260415417421312  0.7557749206186286  0.29368513993830286  1.0000
  Si  Si241     1.0  0.5665095357199902  0.20028100769149837  0.2945632682826875  1.0000
  Si  Si242     1.0  0.8105402326995261  0.05603854743222876  0.2999781591079964  1.0000
  Si  Si243     1.0  0.9942406013876656  0.9085953702627844  0.3014186319886261  1.0000
  Si  Si244     1.0  0.18326967060851526  0.7577391067307293  0.29730651757701815  1.0000
  Si  Si245     1.0  0.45116671834181543  0.6433764949250302  0.33663022801724796  1.0000
  Si  Si246     1.0  0.6749768835346779  0.8993939869399523  0.2944971506289808  1.0000
  Si  Si247     1.0  0.8532472174961289  0.7453381823684392  0.29823079012256304  1.0000
  Si  Si248     1.0  0.018535450519211554  0.6059469459776476  0.29493113638561885  1.0000
  Si  Si249     1.0  0.49670628855282645  0.4615496944981514  0.2938718326125881  1.0000
  Si  Si250     1.0  0.3630744179284232  0.7124144422267299  0.3088089342810705  1.0000
  Si  Si251     1.0  0.740800578322992  0.4463149327103546  0.3474901657069441  1.0000
  Si  Si252     1.0  0.20158125858275494  0.5542015253804483  0.3036052042443641  1.0000
  Si  Si253     1.0  0.43133320437358974  0.27571611070505136  0.3125536108958592  1.0000
  Si  Si254     1.0  0.8163681158438904  0.32099460462363816  0.28807032132487265  1.0000
  Si  Si255     1.0  0.1581729279957247  0.05693269927647831  0.2993542392018673  1.0000
  Si  Si256     1.0  0.3192825168910137  0.9927207143204064  0.3150879883026466  1.0000
  Si  Si257     1.0  0.8441713086513527  0.40204846548046774  0.31176563699982757  1.0000
  Si  Si258     1.0  0.7492249228808036  0.1563993316631494  0.3128000913778697  1.0000
  Si  Si259     1.0  0.9934200945335603  0.010583184015371344  0.3159834776469627  1.0000
  Si  Si260     1.0  0.1757461641083084  0.8553903695941257  0.3084546876176212  1.0000
  Si  Si261     1.0  0.36122264899661805  0.6130315951381272  0.29763801955456626  1.0000
  Si  Si262     1.0  0.4964782206614061  0.03619797895045955  0.3096204264175609  1.0000
  Si  Si263     1.0  0.6837370893671233  0.9871885110173088  0.3156227628257361  1.0000
  Si  Si264     1.0  0.835584618836648  0.8454871274266265  0.3122815036858008  1.0000
  Si  Si265     1.0  0.0347849962526493  0.6990025146677876  0.31142936242670627  1.0000
  Si  Si266     1.0  0.37572543102238143  0.5160934336030698  0.36251566437934046  1.0000
  Si  Si267     1.0  0.5129258505056982  0.8536116779037966  0.30892702543979333  1.0000
  Si  Si268     1.0  0.7100951050784252  0.6358380391347301  0.2538729457124087  1.0000
  Si  Si269     1.0  0.641388208647171  0.6004563251030554  0.3215394600246651  1.0000
  Si  Si270     1.0  0.8544518948722115  0.564212492545797  0.3191962396384466  1.0000
  Si  Si271     1.0  0.6877490159910132  0.68241100396719  0.2955205075552966  1.0000
  Si  Si272     1.0  0.4091429627134022  0.3705752390770587  0.2933808549188555  1.0000
  Si  Si273     1.0  0.3951558153544206  0.610713109326985  0.38010273069328143  1.0000
  Si  Si274     1.0  0.5129916982732722  0.32238080488951526  0.3751899305762184  1.0000
  Si  Si275     1.0  0.41894047725995315  0.24600274531017957  0.35633784903403887  1.0000
  Si  Si276     1.0  0.5523759270613898  0.11615212013035082  0.3579994089468954  1.0000
  Si  Si277     1.0  0.7576515885550786  0.9505706394660438  0.35614998740125764  1.0000
  Si  Si278     1.0  0.007297337697448299  0.3240519572643445  0.3588108525656752  1.0000
  Si  Si279     1.0  0.1734747922447745  0.15902246224442265  0.35538485654626667  1.0000
  Si  Si280     1.0  0.28716646619173003  0.9709434281794761  0.3585381566871192  1.0000
  Si  Si281     1.0  0.467287890985105  0.8325491687534556  0.36700374530872626  1.0000
  Si  Si282     1.0  0.7009117240102358  0.7768473405113514  0.38145084639221166  1.0000
  Si  Si283     1.0  0.7486007154635451  0.14390163363620878  0.35769770520124405  1.0000
  Si  Si284     1.0  0.9358603701925242  0.8899015426278588  0.3670001073133362  1.0000
  Si  Si285     1.0  0.2228273387982808  0.8442956568978031  0.35040732756025883  1.0000
  Si  Si286     1.0  0.6525152976825972  0.5898030337208516  0.44083840351195114  1.0000
  Si  Si287     1.0  0.6491540745540896  0.5649815468968797  0.3990517557232846  1.0000
  Si  Si288     1.0  0.7766983454044727  0.847513750603349  0.35638849227067604  1.0000
  Si  Si289     1.0  0.0570742998959163  0.6638754605182254  0.35377110403895673  1.0000
  Si  Si290     1.0  0.17495629593379167  0.5352424836116308  0.34599507186952744  1.0000
  Si  Si291     1.0  0.3386826166843982  0.4243238855764438  0.376309478345918  1.0000
  Si  Si292     1.0  0.8462820977757028  0.5231237710469573  0.36185633617232343  1.0000
  Si  Si293     1.0  0.0924474690050659  0.4128221968139252  0.36399291309891696  1.0000
  Si  Si294     1.0  0.7595308589941279  0.35861500587286965  0.36984378357735637  1.0000
  Si  Si295     1.0  0.6453572892874225  0.9805884742079586  0.4077105375252641  1.0000
  Si  Si296     1.0  0.9549444976034439  0.3380375978413358  0.5459352024312566  1.0000
  Si  Si297     1.0  0.8379709585909807  0.7925988574267798  0.47635570575014025  1.0000
  Si  Si298     1.0  0.9085934474773366  0.9413382435567921  0.5984567750226943  1.0000
  Si  Si299     1.0  0.911210505531091  0.3048413197728695  0.40992319720671383  1.0000
  Si  Si300     1.0  0.6556067542528865  0.7054151798204814  0.4663819262951121  1.0000
  Si  Si301     1.0  0.26650034759960745  0.16651020242929807  0.49338241866699206  1.0000
  Si  Si302     1.0  0.8049566813759353  0.09838462223079245  0.5569185893110072  1.0000
  Si  Si303     1.0  0.5484242517467501  0.9830492253451727  0.48338370407902675  1.0000
  Si  Si304     1.0  0.38155132089609645  0.7780128545212699  0.5458539589486505  1.0000
  Si  Si305     1.0  0.28828340841929323  0.6837766050585636  0.47549712770795316  1.0000
  Si  Si306     1.0  0.939488306965338  0.41334113301171543  0.6390726573681853  1.0000
  Si  Si307     1.0  0.9377269108729669  0.11984235294765312  0.376168219845364  1.0000
  Si  Si308     1.0  0.013947102612427598  0.7865595887271971  0.5211759109087725  1.0000
  Si  Si309     1.0  0.8390444415706791  0.7594068517708038  0.5580712740400143  1.0000
  Si  Si310     1.0  0.05985586587982546  0.03739664315865593  0.516693479552451  1.0000
  Si  Si311     1.0  0.34868710671092396  0.9542403278977564  0.4491947012725096  1.0000
  Si  Si312     1.0  0.28805025544708723  0.2665468339856107  0.4589391581933062  1.0000
  Si  Si313     1.0  0.018462992924594492  0.2642156207376772  0.4549786824690171  1.0000
  Si  Si314     1.0  0.5061067127908557  0.28739118967912175  0.42968017655089713  1.0000
  Si  Si315     1.0  0.012692447986584338  0.696108141003703  0.5894300635683306  1.0000
  Si  Si316     1.0  0.3494834200414111  0.36556241426848823  0.5509628261626475  1.0000
  Si  Si317     1.0  0.14833387550904736  0.48060196089992036  0.5017557390908987  1.0000
  Si  Si318     1.0  0.8755573677624037  0.49955835745055766  0.48865844003812653  1.0000
  Si  Si319     1.0  0.5147713481617885  0.9186887672351924  0.534677566526219  1.0000
  Si  Si320     1.0  0.5685519736998611  0.8053448077370242  0.5600280760994023  1.0000
  Si  Si321     1.0  0.03922451036805327  0.6008223094839411  0.41866540293205673  1.0000
  Si  Si322     1.0  0.11784665474234089  0.758116496864964  0.38477460241529515  1.0000
  Si  Si323     1.0  0.4784326081828132  0.7162335432315151  0.5097941755615009  1.0000
  Si  Si324     1.0  0.11820910874984403  0.9189704671325105  0.6761955813847572  1.0000
  Si  Si325     1.0  0.8366175864759466  0.04809072344076548  0.6367104606355004  1.0000
  Si  Si326     1.0  0.12390584059696506  0.4332807523885157  0.5566450355091053  1.0000
  Si  Si327     1.0  0.3221540405216503  0.38169724236055164  0.4900779175783315  1.0000
  Si  Si328     1.0  0.21460845110091178  0.8175066672675946  0.6500610945700357  1.0000
  Si  Si329     1.0  0.5999381702524507  0.7717460807908003  0.43391422673809493  1.0000
  Si  Si330     1.0  0.944022112159216  0.6804694097347378  0.5411427069009249  1.0000
  Si  Si331     1.0  0.290244999610092  0.6184937025549947  0.4222844039312692  1.0000
  Si  Si332     1.0  0.25287074093171114  0.2223127439267838  0.3806145016793369  1.0000
  Si  Si333     1.0  0.6921044360824874  0.18750550231278545  0.41013906091585156  1.0000
  Si  Si334     1.0  0.944489924538014  0.9078339392930036  0.46296515611024874  1.0000
  Si  Si335     1.0  0.9335346629753053  0.1364707214982394  0.6030448668035793  1.0000
  Si  Si336     1.0  0.5263513966127218  0.09573809337219731  0.40183238552521716  1.0000
  Si  Si337     1.0  0.1836053620493949  0.05391143764238331  0.471042016981777  1.0000
  Si  Si338     1.0  0.792229922301315  0.625505581466019  0.5051968679200218  1.0000
  Si  Si339     1.0  0.9377884092922614  0.06466171882796655  0.4811520405899419  1.0000
  Si  Si340     1.0  0.03840781980009106  0.24399166708317022  0.5120316319556998  1.0000
  Si  Si341     1.0  0.2608511979277572  0.14075828424374787  0.40713311823930043  1.0000
  Si  Si342     1.0  0.7001561895629487  0.3629442506568568  0.607514167454033  1.0000
  Si  Si343     1.0  0.5722819989195274  0.3758097088897241  0.4678247036319814  1.0000
  Si  Si344     1.0  0.2147778820829047  0.7088348623079681  0.5785243903413482  1.0000
  Si  Si345     1.0  0.7954276830057424  0.9827469307387442  0.45771194479747157  1.0000
  Si  Si346     1.0  0.05615917033652867  0.008430468910277433  0.37722419364980575  1.0000
  Si  Si347     1.0  0.8930045379932211  0.2697399160185315  0.5981011107878914  1.0000
  Si  Si348     1.0  0.9698783634219071  0.49535738212286173  0.3963191448545328  1.0000
  Si  Si349     1.0  0.31367091043358153  0.904479137597107  0.5416084872941774  1.0000
  Si  Si350     1.0  0.2618856273988423  0.5971440477764387  0.5510418342460283  1.0000
  Si  Si351     1.0  0.9631844565559504  0.8619160019445011  0.6424841112164463  1.0000
  Si  Si352     1.0  0.8972523827354385  0.5343440046259731  0.4485809361171262  1.0000
  Si  Si353     1.0  0.8792519292830985  0.20981191276249572  0.41882873277886956  1.0000
  Si  Si354     1.0  0.7468975529713716  0.3927143816517008  0.5107068750071874  1.0000
  Si  Si355     1.0  0.6763952772941033  0.5659560601713471  0.5981950591276302  1.0000
  Si  Si356     1.0  0.37641476467149326  0.49607270524985675  0.413773441367567  1.0000
  Si  Si357     1.0  0.6940222611717057  0.16914437128179866  0.7011963552606774  1.0000
  Si  Si358     1.0  0.7718863997082517  0.3738989859795735  0.7205654575900371  1.0000
  Si  Si359     1.0  0.5163229062206648  0.82980131943604  0.6164440918147909  1.0000
  Si  Si360     1.0  0.4241332580561574  0.12034261392960467  0.6103340053261198  1.0000
  Si  Si361     1.0  0.5698955951160032  0.6517191222916842  0.6761134601640154  1.0000
  Si  Si362     1.0  0.4388236825879929  0.07457100020364692  0.5192634204943612  1.0000
  Si  Si363     1.0  0.7777184071390174  0.47427189850898027  0.6374043164767883  1.0000
  Si  Si364     1.0  0.5975963495889215  0.37947890280702967  0.5557565029853261  1.0000
  Si  Si365     1.0  0.9827718983675658  0.6042670721248383  0.6327982764974196  1.0000
  Si  Si366     1.0  0.5605084763398653  0.1434503578128033  0.5586164011137518  1.0000
  Si  Si367     1.0  0.2306661366439522  0.25348105204831933  0.683526460309478  1.0000
  Si  Si368     1.0  0.6866064111377155  0.9831878491133482  0.5717352001774723  1.0000
  Si  Si369     1.0  0.21376368054225853  0.5980282565277776  0.5106619934911406  1.0000
  Si  Si370     1.0  0.9185609873193084  0.13846851872972873  0.5236826903049812  1.0000
  Si  Si371     1.0  0.5888420576874713  0.021952091530623656  0.6270128629217114  1.0000
  Si  Si372     1.0  0.35427157708147655  0.7704284746335305  0.6237010310112105  1.0000
  Si  Si373     1.0  0.47490207700564907  0.24632715422634438  0.6250095934899299  1.0000
  Si  Si374     1.0  0.281135027211326  0.45077319061853555  0.64619020060294  1.0000
  Si  Si375     1.0  0.24364892084202963  0.783066410552469  0.46937021039808796  1.0000
  Si  Si376     1.0  0.04367458615557293  0.8925141131977674  0.40635232374170316  1.0000
  Si  Si377     1.0  0.49979387222143545  0.3836249121695092  0.6479201974316883  1.0000
  Si  Si378     1.0  0.5049061697416314  0.26757471096347546  0.5651649389109662  1.0000
  Si  Si379     1.0  0.19244478717211144  0.8120709211647823  0.4174505907916031  1.0000
  Si  Si380     1.0  0.48290810973868237  0.5588157906941772  0.5651625344965288  1.0000
  Si  Si381     1.0  0.12128823433692011  0.9819880626773536  0.5698736027459161  1.0000
  Si  Si382     1.0  0.430834049541211  0.1816283531859664  0.7020093629623548  1.0000
  Si  Si383     1.0  0.6261291752060368  0.5999905609010321  0.5477536993046287  1.0000
  Si  Si384     1.0  0.561710837300888  0.4814854303416145  0.4316696485909065  1.0000
  Si  Si385     1.0  0.5275416984847958  0.9133662397891057  0.6589270038563697  1.0000
  Si  Si386     1.0  0.898603633465485  0.07448038910686998  0.6896772831476634  1.0000
  Si  Si387     1.0  0.940127469916336  0.02333237599943704  0.7450659293790676  1.0000
  Si  Si388     1.0  0.6580271163676895  0.17043791156408308  0.76054304395449  1.0000
  Si  Si389     1.0  0.7182842405242758  0.6263407794192286  0.6316606219938042  1.0000
  Si  Si390     1.0  0.811908848303284  0.6045813884259973  0.7866593519642275  1.0000
  Si  Si391     1.0  0.17011293800539112  0.0816461990886021  0.6111470760091633  1.0000
  Si  Si392     1.0  0.34323922050586847  0.0674685515414413  0.7121458511561111  1.0000
  Si  Si393     1.0  0.06654788076965858  0.2491217679750016  0.7321873990414378  1.0000
  Si  Si394     1.0  0.09645996986335327  0.48866340527062346  0.6086000526647678  1.0000
  Si  Si395     1.0  0.2149609489121609  0.9920001164802053  0.7417379136097646  1.0000
  Si  Si396     1.0  0.22256338140373022  0.2717508099816605  0.8754088623904667  1.0000
  Si  Si397     1.0  0.5771951080200235  0.5302045499117183  0.8920861123695734  1.0000
  Si  Si398     1.0  0.03215621902421077  0.5317932808745982  0.7390345922101186  1.0000
  Si  Si399     1.0  0.874905694847003  0.6442762950455984  0.7391363543049022  1.0000
  Si  Si400     1.0  0.4407618687545218  0.44806774262354204  0.7190461629116724  1.0000
  Si  Si401     1.0  0.8156585525488935  0.08693592189868166  0.7905604289980028  1.0000
  Si  Si402     1.0  0.1945704393513525  0.22856266148905888  0.7805787218947243  1.0000
  Si  Si403     1.0  0.23885396862870753  0.4864875089550781  0.9201914277625016  1.0000
  Si  Si404     1.0  0.39101757177684204  0.7959556795672535  0.4373723536636499  1.0000
  Si  Si405     1.0  0.44849636519743413  0.9136842011579086  0.39626257728291675  1.0000
  Si  Si406     1.0  0.9153557806699136  0.6912027443986298  0.38425126795343606  1.0000
  Si  Si407     1.0  0.8627647384708572  0.2585341349235742  0.6964097368254968  1.0000
  Si  Si408     1.0  0.4343452323193117  0.24703480703398728  0.7524004901104011  1.0000
  Si  Si409     1.0  0.6035402363842237  0.49400085166719443  0.7894777960598229  1.0000
  Si  Si410     1.0  0.42829215904940393  0.9487516535016365  0.711224893746587  1.0000
  Si  Si411     1.0  0.14852822316345876  0.052907670199218625  0.6718213837856665  1.0000
  Si  Si412     1.0  0.006702470922256192  0.28544586248106657  0.6507837665712793  1.0000
  Si  Si413     1.0  0.6362821543191978  0.44722902937763354  0.6833501347997235  1.0000
  Si  Si414     1.0  0.20286243079639082  0.8778272709816631  0.48669659603894144  1.0000
  Si  Si415     1.0  0.716764586468091  0.8210886581685386  0.6543430780323336  1.0000
  Si  Si416     1.0  0.296876648703229  0.9087787875097763  0.7838039624287771  1.0000
  Si  Si417     1.0  0.540948096692679  0.1322561354773251  0.8383836876485875  1.0000
  Si  Si418     1.0  0.30115588122625436  0.6695931883266437  0.9074322438410147  1.0000
  Si  Si419     1.0  0.34276248586576463  0.3309712224398759  0.6501409893823703  1.0000
  Si  Si420     1.0  0.06450024210262673  0.8339951317550125  0.7212724601221375  1.0000
  Si  Si421     1.0  0.6235642166043494  0.8712605132456008  0.7434619131672329  1.0000
  Si  Si422     1.0  0.12609359122539396  0.07208272041211185  0.9219873584333073  1.0000
  Si  Si423     1.0  0.4221090181757591  0.7154913277643999  0.7866442927925089  1.0000
  Si  Si424     1.0  0.47908441900439946  0.6127948633370575  0.9049070637350951  1.0000
  Si  Si425     1.0  0.6653977488140046  0.015160667442215621  0.8223356340563411  1.0000
  Si  Si426     1.0  0.850765570265404  0.16412245346341794  0.8847509098482306  1.0000
  Si  Si427     1.0  0.08566538032228513  0.3469846792291489  0.8049189322141762  1.0000
  Si  Si428     1.0  0.16143051377274706  0.6977548149046726  0.8607878048968409  1.0000
  Si  Si429     1.0  0.15225006310589634  0.6324979279557594  0.6762687238872434  1.0000
  Si  Si430     1.0  0.19189171377929895  0.8826879271998128  0.818343483689012  1.0000
  Si  Si431     1.0  0.7399897100502091  0.8360781994862433  0.8811828064337726  1.0000
  Si  Si432     1.0  0.7756692989435517  0.18468453371675037  0.8278952590294314  1.0000
  Si  Si433     1.0  0.5439365677381279  0.43949339681069294  0.9121532908223012  1.0000
  Si  Si434     1.0  0.5350701580895121  0.7556572843555774  0.7412357264765147  1.0000
  Si  Si435     1.0  0.8704600202280675  0.8988817614220134  0.7559973563370115  1.0000
  Si  Si436     1.0  0.27553528831838076  0.1768139421064346  0.8319242580274862  1.0000
  Si  Si437     1.0  0.40005475725870643  0.2688241976294056  0.9193926699352996  1.0000
  Si  Si438     1.0  0.742838944661811  0.2747248080075854  0.7900959890106193  1.0000
  Si  Si439     1.0  0.2153567169315332  0.466732334619865  0.8610811674108994  1.0000
  Si  Si440     1.0  0.2953455199021878  0.7923905421432692  0.7508378764148451  1.0000
  Si  Si441     1.0  0.5549172523056556  0.9069501853175034  0.7989107236341217  1.0000
  Si  Si442     1.0  0.2164591639428257  0.514700398920533  0.6990784018974258  1.0000
  Si  Si443     1.0  0.33088707443295545  0.7149292984168394  0.6596300903565908  1.0000
  Si  Si444     1.0  0.7594529444617796  0.7260947228722071  0.6625368306878159  1.0000
  Si  Si445     1.0  0.2898555571919785  0.9018407642215154  0.9194599616419189  1.0000
  Si  Si446     1.0  0.08172251067973464  0.35197211609360507  0.8616792419207961  1.0000
  Si  Si447     1.0  0.19374669036949502  0.07243091587622394  0.8661110895704222  1.0000
  Si  Si448     1.0  0.8344944337573031  0.5095147776262484  0.9158588895987854  1.0000
  Si  Si449     1.0  0.9707050371124547  0.7220399723455974  0.6990903978585882  1.0000
  Si  Si450     1.0  0.9290821267017996  0.3485291701390934  0.7627260997981594  1.0000
  Si  Si451     1.0  0.5702529570588548  0.4097192463194407  0.8590299395704215  1.0000
  Si  Si452     1.0  0.8118248839806619  0.9484670443451428  0.8597724600274979  1.0000
  Si  Si453     1.0  0.9232824753207455  0.40958242735850575  0.8992402663643981  1.0000
  Si  Si454     1.0  0.6213081204112313  0.4887967630463938  0.8439374882106676  1.0000
  Si  Si455     1.0  0.31073541047093617  0.9478818614340755  0.8621390650488668  1.0000
  Si  Si456     1.0  0.5131170239461905  0.3648170471724994  0.7363248582329901  1.0000
  Si  Si457     1.0  0.9557998402561058  0.044595343638786644  0.8816104032024166  1.0000
  Si  Si458     1.0  0.22826889427282487  0.5341317341528542  0.7820386296060088  1.0000
  Si  Si459     1.0  0.5437754175263105  0.3664051809855025  0.8081603275713284  1.0000
  Si  Si460     1.0  0.8524109644371556  0.6373597503399736  0.8381617334568887  1.0000
  Si  Si461     1.0  0.4720587919148054  0.09653416794419578  0.9314722882098382  1.0000
  Si  Si462     1.0  0.4704892644508304  0.5807718457923776  0.7739899854190816  1.0000
  Si  Si463     1.0  0.10705147977670879  0.5820227040281595  0.8333942392051414  1.0000
  Si  Si464     1.0  0.7276849436998568  0.6261690900424011  0.8928159214222695  1.0000
  Si  Si465     1.0  0.6746731192371418  0.07993662118519036  0.9265235757469937  1.0000
  Si  Si466     1.0  0.04168524564895763  0.21939980987430988  0.9142615922417516  1.0000
  Si  Si467     1.0  0.8214170767076674  0.5219385807932497  0.7677435321708854  1.0000
  Si  Si468     1.0  0.33226237154475663  0.7749833559728895  0.8360228794097179  1.0000
  Si  Si469     1.0  0.9259906098307527  0.7623745917800107  0.8454049268579555  1.0000
  Si  Si470     1.0  0.6169723350762412  0.6266143257791172  0.7275131969974677  1.0000
  Si  Si471     1.0  0.508472478823118  0.8614469391070422  0.8504413843306584  1.0000
  Si  Si472     1.0  0.30381221917806606  0.42006089563086296  0.8115337049431709  1.0000
  Si  Si473     1.0  0.7316177357663198  0.7954280050241258  0.921639087436932  1.0000
  Si  Si474     1.0  0.926590736508208  0.8732196127138162  0.8132709493164959  1.0000
  O   O1        1.0  0.18173813753107582  0.0246638396121643  0.4999705836913258  1.0000
  O   O2        1.0  0.11670425227630107  0.8093916342525415  0.3623601941087984  1.0000
  O   O3        1.0  0.7430152513576463  0.6945322101409559  0.6342860473229137  1.0000
  O   O4        1.0  0.22356685435529247  0.11887839041521757  0.47347768016403885  1.0000
  O   O5        1.0  0.8328177526075522  0.0477550046143533  0.4626093527326457  1.0000
  O   O6        1.0  0.20825472367955222  0.538561511142397  0.4938793553335533  1.0000
  O   O7        1.0  0.34313537413158984  0.8055052834195364  0.35953053298815835  1.0000
  O   O8        1.0  0.3261598027629838  0.6564403271140845  0.44682174365808475  1.0000
  O   O9        1.0  0.3001058099640983  0.5481923340460271  0.42916224661476593  1.0000
  O   O10       1.0  0.4466530548259052  0.6904491895333896  0.6752236882289433  1.0000
  O   O11       1.0  0.034620360723905924  0.43103590581285445  0.3921217687681757  1.0000
  O   O12       1.0  0.9514917296581058  0.1673574762704805  0.39827234527543703  1.0000
  O   O13       1.0  0.6406857671042412  0.12484372930309084  0.41401263167848196  1.0000
  O   O14       1.0  0.07061580705183897  0.9086154252807395  0.47815531280796625  1.0000
  O   O15       1.0  0.548425167923943  0.09750942240960117  0.5358071104313645  1.0000
  O   O16       1.0  0.6463125050448119  0.32256299816460343  0.36430229195883856  1.0000
  O   O17       1.0  0.958481054507216  0.3197142208158362  0.43890599288250337  1.0000
  O   O18       1.0  0.6973130483829229  0.7705693134379916  0.5640281583726895  1.0000
  O   O19       1.0  0.14511145515481358  0.7855107031428695  0.44516671282492665  1.0000
  O   O20       1.0  0.5344836959788895  0.6017270396125258  0.3876377533125961  1.0000
  O   O21       1.0  0.3487762731483336  0.5419541548531607  0.5625876124968086  1.0000
  O   O22       1.0  0.9107121741424374  0.750135034361798  0.5862335949380337  1.0000
  O   O23       1.0  0.16079472034256095  0.6981702474436368  0.368849545937345  1.0000
  O   O24       1.0  0.5828002166541795  0.9201981113848486  0.40605191467007057  1.0000
  O   O25       1.0  0.19295035342474345  0.020967758154393248  0.37055389209485773  1.0000
  O   O26       1.0  0.8956124920616294  0.4929601656069863  0.4232561566702034  1.0000
  O   O27       1.0  0.3334515006449527  0.36813233024420416  0.5202104643825944  1.0000
  O   O28       1.0  0.4100079268501107  0.9650020528396676  0.37487082711002623  1.0000
  O   O29       1.0  0.15106149950649955  0.638457340761595  0.41858172527479637  1.0000
  O   O30       1.0  0.047532293561558844  0.12849673996376856  0.3563429566098515  1.0000
  O   O31       1.0  0.31881205587687117  0.8406275942076481  0.5548659799879548  1.0000
  O   O32       1.0  0.5554838146829638  0.3127581516064427  0.4559264961085852  1.0000
  O   O33       1.0  0.8820504306926191  0.12566593145453925  0.49377673707061087  1.0000
  O   O34       1.0  0.4034529962500768  0.12497168634044008  0.41264308171681413  1.0000
  O   O35       1.0  0.7652141199126195  0.29899367914501357  0.607876865560761  1.0000
  O   O36       1.0  0.04873168261501071  0.0626659865921335  0.46098029844224464  1.0000
  O   O37       1.0  0.3738720722574966  0.2705346553609197  0.43440335574807865  1.0000
  O   O38       1.0  0.5067834673979388  0.33323126033784584  0.406356713613282  1.0000
  O   O39       1.0  0.006378187020818223  0.3992926558502866  0.5531593817198567  1.0000
  O   O40       1.0  0.9289978665771161  0.6428174317939742  0.4075241884207965  1.0000
  O   O41       1.0  0.7671890783586823  0.6725473573169197  0.482495274010261  1.0000
  O   O42       1.0  0.842910294291869  0.350678379865424  0.5265804900870925  1.0000
  O   O43       1.0  0.06970157460278302  0.9607004034251994  0.40000406660130705  1.0000
  O   O44       1.0  0.007286634906188102  0.5759892491329817  0.44676559868535026  1.0000
  O   O45       1.0  0.06970535477535063  0.27402230615491335  0.3407750408404679  1.0000
  O   O46       1.0  0.22935566606482508  0.3889000186644651  0.36696859562126977  1.0000
  O   O47       1.0  0.5134670092306901  0.2075723234112993  0.5496624935419506  1.0000
  O   O48       1.0  0.16731303284519794  0.46495235324521894  0.5314954815563585  1.0000
  O   O49       1.0  0.8044716077909353  0.35107980739383676  0.3998857683761301  1.0000
  O   O50       1.0  0.1868840598310398  0.6485057218597652  0.48916756854892807  1.0000
  O   O51       1.0  0.5424902069945253  0.030725469923683447  0.4136796035114446  1.0000
  O   O52       1.0  0.7501228004956968  0.9784041175542089  0.42811331973681077  1.0000
  O   O53       1.0  0.7149971471572754  0.19777047049624055  0.3791947657082551  1.0000
  O   O54       1.0  0.6806453403437627  0.635661153780458  0.524953652702747  1.0000
  O   O55       1.0  0.6800074142163309  0.36131082238823836  0.48760469612204066  1.0000
  O   O56       1.0  0.033885892465879676  0.9413210248904028  0.5842670962108485  1.0000
  O   O57       1.0  0.1036434948202146  0.8855115851794206  0.7032474146697381  1.0000
  O   O58       1.0  0.9028166000555401  0.09418611111430467  0.5797621830321584  1.0000
  O   O59       1.0  0.2634835104096469  0.014081279543312555  0.45143473214794905  1.0000
  O   O60       1.0  0.15801156787179346  0.25690989769342454  0.448512392910671  1.0000
  O   O61       1.0  0.4787547771113625  0.9682400821246226  0.4576444816529875  1.0000
  O   O62       1.0  0.5700108296805193  0.7368585329468966  0.487786642602724  1.0000
  O   O63       1.0  0.47278460320785054  0.06582633831941141  0.6279823115200734  1.0000
  O   O64       1.0  0.7497648325689564  0.5075096240242388  0.6108998067863274  1.0000
  O   O65       1.0  0.03399605396064273  0.4308703775511479  0.6186487079428802  1.0000
  O   O66       1.0  0.4516652926358742  0.38529132239994324  0.36556858934469033  1.0000
  O   O67       1.0  0.597001734138389  0.6491924185271689  0.45322999145678805  1.0000
  O   O68       1.0  0.3170397062418403  0.43506883171459204  0.4076178464187193  1.0000
  O   O69       1.0  0.7887093488231195  0.5831403189899298  0.4485157848394609  1.0000
  O   O70       1.0  0.15133375029353513  0.03109296532581241  0.5904731746933118  1.0000
  O   O71       1.0  0.06801973586714799  0.542080075345663  0.4014808791825295  1.0000
  O   O72       1.0  0.9801879352617839  0.6470202063493123  0.5683760663078056  1.0000
  O   O73       1.0  0.5007465959706092  0.18400355408071664  0.35622787898589325  1.0000
  O   O74       1.0  0.7779322539368283  0.713921152741658  0.37820706142466604  1.0000
  O   O75       1.0  0.9664792460458357  0.057558295994449005  0.3903175305984602  1.0000
  O   O76       1.0  0.492955261077282  0.12114248873950703  0.5832648901102051  1.0000
  O   O77       1.0  0.09805307930074664  0.47723892284684105  0.34985681405272345  1.0000
  O   O78       1.0  0.5981124540528606  0.3885368689981203  0.6702862608498119  1.0000
  O   O79       1.0  0.500210451032172  0.04834129508427472  0.492253584488821  1.0000
  O   O80       1.0  0.9851992953664496  0.3569885978703914  0.6549204443584226  1.0000
  O   O81       1.0  0.7974355918283592  0.9375953862428874  0.5794731187072933  1.0000
  O   O82       1.0  0.22869121211781096  0.9085417869194814  0.36380188916641787  1.0000
  O   O83       1.0  0.6943556901964386  0.7901535290580729  0.41236627350304467  1.0000
  O   O84       1.0  0.35427368744462034  0.13505818421655816  0.5140294919555964  1.0000
  O   O85       1.0  0.9093280215474305  0.254002460462456  0.6669665749537774  1.0000
  O   O86       1.0  0.4779680774662347  0.7437118826924498  0.42228876246999875  1.0000
  O   O87       1.0  0.8881187116318959  0.9973090189798137  0.617395243902233  1.0000
  O   O88       1.0  0.45981402550064715  0.40248544778694445  0.5595105937131944  1.0000
  O   O89       1.0  0.2909121498717926  0.10776335172615756  0.6046416236390119  1.0000
  O   O90       1.0  0.5631906786291282  0.7772498819153065  0.37211105371679704  1.0000
  O   O91       1.0  0.02053947552364527  0.3056315756979547  0.38921093807675733  1.0000
  O   O92       1.0  0.33445459348894696  0.21202682237574708  0.47648046198229344  1.0000
  O   O93       1.0  0.5766112090290063  0.37157434799266686  0.6216680750976218  1.0000
  O   O94       1.0  0.23585990534435317  0.8995087156237068  0.5153392404673794  1.0000
  O   O95       1.0  0.6124139285908506  0.9968262051235222  0.5982459460101163  1.0000
  O   O96       1.0  0.4239019421539236  0.44808345647824105  0.6452980767169845  1.0000
  O   O97       1.0  0.6323014433806112  0.49463458175976005  0.4046540787500038  1.0000
  O   O98       1.0  0.8665727553398235  0.3238113236269691  0.3530785780971352  1.0000
  O   O99       1.0  0.9793170351346563  0.7501305255577507  0.39227969729537737  1.0000
  O   O100      1.0  0.2842494228705671  0.7326823642437273  0.5533603523744322  1.0000
  O   O101      1.0  0.49335293431848376  0.08642138227444497  0.33279194487354785  1.0000
  O   O102      1.0  0.6958322269177304  0.05859605138130863  0.6357150945356088  1.0000
  O   O103      1.0  0.9981725040478421  0.00686174534413132  0.3480209907963519  1.0000
  O   O104      1.0  0.44689826617316974  0.40241337999692905  0.47971304523086356  1.0000
  O   O105      1.0  0.5910082365415827  0.9616679909481525  0.5517711392462246  1.0000
  O   O106      1.0  0.22337553569394344  0.8827417425635589  0.660848283048494  1.0000
  O   O107      1.0  0.5895522504155339  0.23284562788396415  0.4205361052062377  1.0000
  O   O108      1.0  0.0004787318565733223  0.6633396162302634  0.6173160035503437  1.0000
  O   O109      1.0  0.6976916104749309  0.9924073099064709  0.3792642599694695  1.0000
  O   O110      1.0  0.7286230769761651  0.5867411249995008  0.5706538725889567  1.0000
  O   O111      1.0  0.9662372015423865  0.8907794012519668  0.43269140585137406  1.0000
  O   O112      1.0  0.7590952404479728  0.6146252287938468  0.7281535518967932  1.0000
  O   O113      1.0  0.31205507983103714  0.3057107720291742  0.6781555501898302  1.0000
  O   O114      1.0  0.8666646904001062  0.8612267103053007  0.47640941124652825  1.0000
  O   O115      1.0  0.5269981621463616  0.9346567412209777  0.5046362991958793  1.0000
  O   O116      1.0  0.534007721545511  0.8434928098075468  0.5863037503305458  1.0000
  O   O117      1.0  0.9370647060413256  0.763453485365921  0.4954275387088366  1.0000
  O   O118      1.0  0.881914878843293  0.20140074821028026  0.5953767930418683  1.0000
  O   O119      1.0  0.21541637911360823  0.4302815334893087  0.4843984723760216  1.0000
  O   O120      1.0  0.09737832678171482  0.594094029367846  0.3562327599904248  1.0000
  O   O121      1.0  3.243926279227922e-05  0.9165557801098008  0.659301921487192  1.0000
  O   O122      1.0  0.4026510104690247  0.6703417456758691  0.4937164802722948  1.0000
  O   O123      1.0  0.16707836074912585  0.26032477108990587  0.7111857835067277  1.0000
  O   O124      1.0  0.5765745611076124  0.5344088709114644  0.542171457973974  1.0000
  O   O125      1.0  0.8468266685532403  0.5939627489682695  0.6407460672136694  1.0000
  O   O126      1.0  0.6993131018374339  0.14620899686076375  0.5643708481056813  1.0000
  O   O127      1.0  0.3755760033556207  0.2989107300496161  0.5594011489718581  1.0000
  O   O128      1.0  0.3198483253210774  0.194814025351221  0.6826127500585037  1.0000
  O   O129      1.0  0.5693564219355748  0.6073018160871051  0.6998941896007878  1.0000
  O   O130      1.0  0.17327069910193146  0.7984546655753443  0.7357967950267142  1.0000
  O   O131      1.0  0.9153519056885214  0.6356296644083552  0.5186653174545903  1.0000
  O   O132      1.0  0.5074986984567158  0.8644890486491663  0.3407544302549583  1.0000
  O   O133      1.0  0.15950460713352063  0.20456552473050926  0.5077856719313153  1.0000
  O   O134      1.0  0.24501058199486292  0.9478176518398899  0.5623569446125188  1.0000
  O   O135      1.0  0.6059823898603469  0.4206118264715317  0.44529778799351716  1.0000
  O   O136      1.0  0.5136019090380652  0.8299017551685394  0.44375565074380985  1.0000
  O   O137      1.0  0.7999033226524795  0.4469624586171001  0.4969882798459138  1.0000
  O   O138      1.0  0.6025750466347112  0.30908134470851517  0.5533127895750481  1.0000
  O   O139      1.0  0.13304645110918145  0.587006434770795  0.5373581406195436  1.0000
  O   O140      1.0  0.5829420242781135  0.5345817414789893  0.45151879137682727  1.0000
  O   O141      1.0  0.3193296836714369  0.8540124880252192  0.7641382873802492  1.0000
  O   O142      1.0  0.750951874986122  0.5693219273893669  0.37793883720218746  1.0000
  O   O143      1.0  0.4306722452171533  0.18001785151719046  0.6251433456974612  1.0000
  O   O144      1.0  0.8467374329008751  0.32650934085251165  0.7031909480318465  1.0000
  O   O145      1.0  0.5271891396136446  0.4793702257734542  0.6986405136027423  1.0000
  O   O146      1.0  0.05632699266213298  0.9995273492322133  0.5426122836876269  1.0000
  O   O147      1.0  0.2645783086723339  0.07312085540450625  0.6860775989479941  1.0000
  O   O148      1.0  0.7924050413803975  0.40240520103418687  0.6250793942262305  1.0000
  O   O149      1.0  0.7499373056018834  0.035418824339206983  0.5576196858757922  1.0000
  O   O150      1.0  0.9182469813448568  0.8816004484161138  0.614332654419628  1.0000
  O   O151      1.0  0.9578638908511854  0.20617940412617103  0.4455500082401141  1.0000
  O   O152      1.0  0.43706859379735913  0.9208247338275636  0.682771764438083  1.0000
  O   O153      1.0  0.7429822866749549  0.43091419607013776  0.7029774313655333  1.0000
  O   O154      1.0  0.24994617519478265  0.6385849383733856  0.5762980389045355  1.0000
  O   O155      1.0  0.2856308010145662  0.7363675599992898  0.6016589051035197  1.0000
  O   O156      1.0  0.40342024903410545  0.12559189815884966  0.7185396389180617  1.0000
  O   O157      1.0  0.561579121652621  0.1702066307649595  0.6891424286066721  1.0000
  O   O158      1.0  0.008247405766050448  0.48601204532832026  0.4985035796991351  1.0000
  O   O159      1.0  0.6863815896579296  0.9758153947749825  0.4768650494130471  1.0000
  O   O160      1.0  0.07498604973991002  0.8128185741133882  0.6421608422878243  1.0000
  O   O161      1.0  0.6858069330464347  0.3924991073747828  0.5796521010570735  1.0000
  O   O162      1.0  0.056036810841694776  0.2979599134067106  0.5311422882904868  1.0000
  O   O163      1.0  0.6459180819067264  0.41279752569821665  0.5313545043763765  1.0000
  O   O164      1.0  0.29726893133717597  0.906037173817833  0.46718461805025735  1.0000
  O   O165      1.0  0.681617074365599  0.4863715170836709  0.6595907573829018  1.0000
  O   O166      1.0  0.28513658567901423  0.32577916054487216  0.47500276785590945  1.0000
  O   O167      1.0  0.15955047929579041  0.05906643492942281  0.6408201552334226  1.0000
  O   O168      1.0  0.7362659683436685  0.23375208979647402  0.6983985801395665  1.0000
  O   O169      1.0  0.9922196680228222  0.2778952892514988  0.6201635540792526  1.0000
  O   O170      1.0  0.3888630669600247  0.7773867565308071  0.5140185560856834  1.0000
  O   O171      1.0  0.5274523610863739  0.25634210272656255  0.595253242391343  1.0000
  O   O172      1.0  0.2312853749409653  0.38865003154174166  0.5657293760259202  1.0000
  O   O173      1.0  0.4246772075762948  0.23599866272216577  0.7218073355047885  1.0000
  O   O174      1.0  0.8980584159031592  0.8092299317483307  0.5412458556411578  1.0000
  O   O175      1.0  0.05462579323445016  0.7184318313239687  0.5330294242476539  1.0000
  O   O176      1.0  0.4653734730348398  0.8847797157062172  0.6343539832250804  1.0000
  O   O177      1.0  0.8746873964925101  0.031213022590324515  0.6659501333624467  1.0000
  O   O178      1.0  0.5422471979165918  0.545194657010129  0.593854823064537  1.0000
  O   O179      1.0  0.3415009701500521  0.2861523222445796  0.6264095707117903  1.0000
  O   O180      1.0  0.09008601431655931  0.6807412119173076  0.6953947820393837  1.0000
  O   O181      1.0  0.21609543345066834  0.9169316256680645  0.844838404622412  1.0000
  O   O182      1.0  0.03415122234421621  0.09023541224279284  0.6843926761753378  1.0000
  O   O183      1.0  0.8545504477878374  0.13574098555290234  0.8110060614852613  1.0000
  O   O184      1.0  0.1259351970395752  0.2845196852418663  0.7935446360444581  1.0000
  O   O185      1.0  0.5825029926748461  0.8538538453350618  0.5376270165280166  1.0000
  O   O186      1.0  0.8489297175850182  0.8400140246097316  0.65610789010075  1.0000
  O   O187      1.0  0.5635262720312313  0.06766993918357346  0.8236165280355543  1.0000
  O   O188      1.0  0.3552789379770455  0.27089111584300873  0.8891396160550297  1.0000
  O   O189      1.0  0.4304486775639448  0.37879328957593067  0.7104220608348353  1.0000
  O   O190      1.0  0.6361650270696811  0.870475404637177  0.670176437813334  1.0000
  O   O191      1.0  0.5762502275792573  0.9723128869546189  0.6484949183616484  1.0000
  O   O192      1.0  0.13185139486956535  0.2570748778731511  0.6608376159618297  1.0000
  O   O193      1.0  0.2645949493222577  0.0549125856783673  0.7373650333728169  1.0000
  O   O194      1.0  0.5220340031121169  0.19488173133946562  0.7641055550743175  1.0000
  O   O195      1.0  0.33461411060800855  0.5662482294822649  0.7687492382650856  1.0000
  O   O196      1.0  0.021311227082632354  0.5478368000729662  0.6155834922723219  1.0000
  O   O197      1.0  0.9373270530022253  0.20759445324277556  0.5250967139060888  1.0000
  O   O198      1.0  0.9232588635629383  0.30259824861942103  0.5718529791600782  1.0000
  O   O199      1.0  0.7346208854792396  0.2223233593613022  0.7698519536029262  1.0000
  O   O200      1.0  0.9923733686937471  0.6004604310832389  0.7358697284394319  1.0000
  O   O201      1.0  0.29312403177582375  0.9476253739035091  0.7221613131396813  1.0000
  O   O202      1.0  0.6871583386034767  0.15281724988160372  0.7311695565121475  1.0000
  O   O203      1.0  0.2996924251741562  0.7393411845606664  0.7719102336753864  1.0000
  O   O204      1.0  0.430072574540668  0.5897737730683353  0.9673145149593776  1.0000
  O   O205      1.0  0.8538570433762518  0.3921036115508601  0.7437508272324782  1.0000
  O   O206      1.0  0.8937846302833509  0.7154755329669554  0.6733090932708848  1.0000
  O   O207      1.0  0.8754351496623918  0.968055621124184  0.7546807811186412  1.0000
  O   O208      1.0  0.24296237028309367  0.23599422322170183  0.8484131431998562  1.0000
  O   O209      1.0  0.18679422757362577  0.3892950204796586  0.8093114461199608  1.0000
  O   O210      1.0  0.056533777635869684  0.6010615904843877  0.6593339977904716  1.0000
  O   O211      1.0  0.9935644044092652  0.2738601904433005  0.4851525711395681  1.0000
  O   O212      1.0  0.8825695312219718  0.048588972338966675  0.7183393887060404  1.0000
  O   O213      1.0  0.6942890385876458  0.11182035152516023  0.7764643925718511  1.0000
  O   O214      1.0  0.9017159785922756  0.5552101425188385  0.9324740760206512  1.0000
  O   O215      1.0  0.35536489054513615  0.9270043153751777  0.42016627103309195  1.0000
  O   O216      1.0  0.2281183491234204  0.47966409375496605  0.6723655937902417  1.0000
  O   O217      1.0  0.049111867966685326  0.10422114163053482  0.5280323800917173  1.0000
  O   O218      1.0  0.21552446473147005  0.18084387657205428  0.803218333586766  1.0000
  O   O219      1.0  0.021283386580830534  0.30984262145511043  0.745148041732596  1.0000
  O   O220      1.0  0.5483607658648594  0.5900699689380102  0.7482909699586927  1.0000
  O   O221      1.0  0.41576142892122714  0.16598733798424598  0.8280645060022148  1.0000
  O   O222      1.0  0.6666673737646935  0.9829513237702757  0.9702666804754173  1.0000
  O   O223      1.0  0.9581198383507555  0.22532572965368564  0.7159042866341254  1.0000
  O   O224      1.0  0.7502619315789635  0.01842222558937926  0.9235579077372584  1.0000
  O   O225      1.0  0.31952531983474697  0.4894684812004575  0.7187583131440406  1.0000
  O   O226      1.0  0.40268684914382286  0.7744399074851019  0.7311060507158512  1.0000
  O   O227      1.0  0.8820296079948635  0.1109460590400914  0.6294552120894229  1.0000
  O   O228      1.0  0.31681221050624503  0.24654100505000212  0.7688079297767841  1.0000
  O   O229      1.0  0.7993611978441624  0.5564019397670033  0.5000477955012665  1.0000
  O   O230      1.0  0.604931393231561  0.6151236973748077  0.6501363215142361  1.0000
  O   O231      1.0  0.14463741556139942  0.985282394824158  0.6796946744448306  1.0000
  O   O232      1.0  0.9166889972033543  0.0696099667745  0.7688445613652027  1.0000
  O   O233      1.0  0.11754202876708791  0.2082600133757812  0.7560007254464659  1.0000
  O   O234      1.0  0.7162420336124465  0.4794923479050603  0.7701024561069248  1.0000
  O   O235      1.0  0.10325370105721367  0.48295969777594083  0.5781489562842413  1.0000
  O   O236      1.0  0.07336784887319249  0.13564391361114908  0.6062843072491723  1.0000
  O   O237      1.0  0.4506227941865545  0.017007308994664953  0.7093684173827759  1.0000
  O   O238      1.0  0.7979000086103352  0.12832230336324565  0.6874769884502608  1.0000
  O   O239      1.0  0.6518738288109666  0.8158057336534329  0.6265146786231917  1.0000
  O   O240      1.0  0.2558570697455423  0.7708430311112642  0.673542224011832  1.0000
  O   O241      1.0  0.6529758632447002  0.3475067503598717  0.731210338059159  1.0000
  O   O242      1.0  0.354049615205934  0.7323860289997982  0.9076311711971378  1.0000
  O   O243      1.0  0.08344414936037435  0.8300226810933861  0.9579858283537919  1.0000
  O   O244      1.0  0.5274459865983502  0.7461623457744392  0.7721274679024079  1.0000
  O   O245      1.0  0.9143905861594283  0.4824785151465264  0.8919037017283921  1.0000
  O   O246      1.0  0.2988051141927919  0.9275878292363758  0.891255288427925  1.0000
  O   O247      1.0  0.20111537831250412  0.5558401180902098  0.9237312242247719  1.0000
  O   O248      1.0  0.9577638433079865  0.9860266608708242  0.968813780785554  1.0000
  O   O249      1.0  0.5833317829784971  0.07992309884846963  0.9515776647337157  1.0000
  O   O250      1.0  0.8201103517811187  0.7918792383604163  0.8627456900683844  1.0000
  O   O251      1.0  0.7016602109865214  0.9929732877584065  0.85134553930434  1.0000
  O   O252      1.0  0.6189650970478189  0.3128850054260539  0.7947908625791346  1.0000
  O   O253      1.0  0.07516633359117342  0.003376603505268216  0.7375633544819477  1.0000
  O   O254      1.0  0.5697742229603562  0.42779201955660173  0.7950427089195089  1.0000
  O   O255      1.0  0.2234649742243494  0.48644899690843707  0.622008473396608  1.0000
  O   O256      1.0  0.6728887956318759  0.6943271263234299  0.6814939012583634  1.0000
  O   O257      1.0  0.7572414578366893  0.885624558783784  0.7390049961080929  1.0000
  O   O258      1.0  0.22219921227402561  0.12429809200141607  0.8472805204871383  1.0000
  O   O259      1.0  0.7919733470054844  0.24913541192725472  0.817045250433875  1.0000
  O   O260      1.0  0.24268404814985062  0.38516031023248903  0.645200099549391  1.0000
  O   O261      1.0  0.29900063445465047  0.3121870204468483  0.9327177472694085  1.0000
  O   O262      1.0  0.3535875429044065  0.9383271843812254  0.9409237841284902  1.0000
  O   O263      1.0  0.8327791014209202  0.16293932183725357  0.9608537332489075  1.0000
  O   O264      1.0  0.7706669715393593  0.1911669382270499  0.9083610805503217  1.0000
  O   O265      1.0  0.7172992369322481  0.5525497432114355  0.9002080647197565  1.0000
  O   O266      1.0  0.5649935973534008  0.35703743298830815  0.8390315400212625  1.0000
  O   O267      1.0  0.8960730043860872  0.7018904503066821  0.7235154855219333  1.0000
  O   O268      1.0  0.566441621714559  0.6665200085208226  0.950463104264816  1.0000
  O   O269      1.0  0.8392499654818353  0.31236862845549007  0.7781974011459477  1.0000
  O   O270      1.0  0.6596850819722047  0.514127026103712  0.8167775855304252  1.0000
  O   O271      1.0  0.9853434193360883  0.8645439847965289  0.7438533083188865  1.0000
  O   O272      1.0  0.22956259386130345  0.9651435015730858  0.7702294543977461  1.0000
  O   O273      1.0  0.749597275900593  0.2914441609780784  0.9422457484923562  1.0000
  O   O274      1.0  0.9945430444904019  0.7886183452353873  0.7046423016832019  1.0000
  O   O275      1.0  0.4712759452400711  0.3135876197320606  0.7543725795120441  1.0000
  O   O276      1.0  0.997968679191832  0.8371461484756124  0.9094969017218962  1.0000
  O   O277      1.0  0.4202482350709828  0.9302954451581886  0.7937783253475929  1.0000
  O   O278      1.0  0.9122986958049354  0.5001786241778723  0.7449843469247399  1.0000
  O   O279      1.0  0.8543256226055538  0.7778301184223946  0.9359177219632052  1.0000
  O   O280      1.0  0.5885819203366162  0.6953614052133698  0.7298142239530404  1.0000
  O   O281      1.0  0.6244665290002794  0.9616854169810448  0.8057844662801251  1.0000
  O   O282      1.0  0.9801712836784598  0.18022378118812138  0.8924288557089877  1.0000
  O   O283      1.0  0.958880937359035  0.27430074697537704  0.9251491797685406  1.0000
  O   O284      1.0  0.14910683549979156  0.23988331773008614  0.8971914767623176  1.0000
  O   O285      1.0  0.5275323519645917  0.9163951585306467  0.7297103703121226  1.0000
  O   O286      1.0  0.05559918446387357  0.8958952748021063  0.8108307123502204  1.0000
  O   O287      1.0  0.8464234942642697  0.09426613471312388  0.8814105252022821  1.0000
  O   O288      1.0  0.9573048175554278  0.3611389717215911  0.8770436013006282  1.0000
  O   O289      1.0  0.9993236339271271  0.38180341047903005  0.7843549374935048  1.0000
  O   O290      1.0  0.6175066364317825  0.8056153700488345  0.7329418169257855  1.0000
  O   O291      1.0  0.7846116078878113  0.03192135366629142  0.8077404257070235  1.0000
  O   O292      1.0  0.007568671196505371  0.04529614404820689  0.9107477546410564  1.0000
  O   O293      1.0  0.3191687988145753  0.44452936869466575  0.8407200743093715  1.0000
  O   O294      1.0  0.5895434084335993  0.5454799326629368  0.8612160843800707  1.0000
  O   O295      1.0  0.8546155523084726  0.9127634637657431  0.8343059992073074  1.0000
  O   O296      1.0  0.6035211145935093  0.8717324895676454  0.7740680085172529  1.0000
  O   O297      1.0  0.5687069951832472  0.8605709192648724  0.822271264148856  1.0000
  O   O298      1.0  0.6453485155271229  0.5556316086092482  0.9531708458211025  1.0000
  O   O299      1.0  0.1806491067775124  0.020618297715614266  0.9407933736377024  1.0000
  O   O300      1.0  0.2783357173772514  0.7291112768294261  0.8545795949534223  1.0000
  O   O301      1.0  0.034291405150627764  0.33661469671702765  0.8330441543283073  1.0000
  O   O302      1.0  0.5277861274839433  0.2951856575513518  0.925074304491219  1.0000
  O   O303      1.0  0.15283022482005854  0.643223547727793  0.8420665662737594  1.0000
  O   O304      1.0  0.812055793757719  0.6511226323887309  0.9140790618485004  1.0000
  O   O305      1.0  0.22301665035714713  0.5832282237500686  0.6937685614388588  1.0000
  O   O306      1.0  0.1320687938096754  0.5208422544635015  0.7608885129152106  1.0000
  O   O307      1.0  0.0901741495181298  0.5065486201788497  0.7124352686006857  1.0000
  O   O308      1.0  0.6378956772959351  0.7464446051400606  0.9205870572377335  1.0000
  O   O309      1.0  0.7644185911240585  0.6282508823939995  0.814310113025405  1.0000
  O   O310      1.0  0.18750853928382905  0.6698346806607852  0.8890229662263921  1.0000
  O   O311      1.0  0.15216818234728327  0.9060234273458159  0.9251582112489034  1.0000
  O   O312      1.0  0.1624965751185504  0.38136364746698226  0.957795358337844  1.0000
  O   O313      1.0  0.28509176155367  0.017020978449368205  0.8593090566540703  1.0000
  O   O314      1.0  0.38827362411969274  0.04502795115014213  0.932963925199357  1.0000
  O   O315      1.0  0.36214218215238775  0.839108394035957  0.9217045320514511  1.0000
  O   O316      1.0  0.9088240517146078  0.5450944874141886  0.7907058771323678  1.0000
  O   O317      1.0  0.03362054344003834  0.6384748446903094  0.9331357558229504  1.0000
  O   O318      1.0  0.2231338235071043  0.8131132569733915  0.8228223526199765  1.0000
  O   O319      1.0  0.0495512311596237  0.7459142261673003  0.8604980701855359  1.0000
  O   O320      1.0  0.451764056505256  0.6454782005033608  0.7876222455144873  1.0000
  O   O321      1.0  0.6185702421338394  0.7602674419663897  0.9702810829998378  1.0000
  O   O322      1.0  0.7852300159643618  0.6314217084073837  0.8652196258896796  1.0000
  O   O323      1.0  0.5146419331834517  0.3968727848835519  0.8872527896611655  1.0000
  O   O324      1.0  0.2538921684674083  0.6559777592162909  0.9360181123573029  1.0000
  O   O325      1.0  0.1527189155470633  0.5280757007270669  0.8514908482635775  1.0000
  O   O326      1.0  0.5625862285275383  0.09056842824659962  0.9062438032555247  1.0000
  O   O327      1.0  0.778244080243499  0.9020906815778318  0.8812010884943484  1.0000
  O   O328      1.0  0.12585148621389391  0.4171430064664651  0.8623930266903036  1.0000
  O   O329      1.0  0.9109514151991487  0.9832336267441869  0.873520749016503  1.0000
  O   O330      1.0  0.39330055376140943  0.39270890027908345  0.9593193030833596  1.0000
  O   O331      1.0  0.8607637265426573  0.8786271100641371  0.78579975531254  1.0000
  O   O332      1.0  0.5282480996700576  0.8717150498471669  0.9672702177647451  1.0000
  O   O333      1.0  0.25178071612119607  0.1807348300964618  0.9467835189812981  1.0000
  O   O334      1.0  0.4453962642217421  0.9266633769930179  0.8544385774060358  1.0000
  O   O335      1.0  0.882116046469394  0.37376640183097803  0.9487883258677141  1.0000
  O   O336      1.0  0.2627207548357243  0.7642078160610343  0.9519983813338725  1.0000
  O   O337      1.0  0.6038217976349481  0.8405008408465207  0.8717838461003056  1.0000
  O   O338      1.0  0.6387488646513917  0.17325145274185444  0.82517705566542  1.0000
  O   O339      1.0  0.1604900093089447  0.57178291889928  0.8046695295089723  1.0000
  O   O340      1.0  0.24329967814027123  0.6627629187913057  0.6577930011158102  1.0000
  O   O341      1.0  0.2076730361545916  0.08658154640795257  0.8967602548018326  1.0000
  O   O342      1.0  0.05742371610910953  0.05897988393327455  0.861229072666662  1.0000
  O   O343      1.0  0.8889476192739141  0.7019586071624753  0.8343625460608683  1.0000
  O   O344      1.0  0.2988938229159021  0.47495798368325376  0.7923837093213453  1.0000
  O   O345      1.0  0.7065305187055105  0.4372159137583497  0.8596424732214117  1.0000
  O   O346      1.0  0.9650544085085742  0.5904186495186343  0.8361016485461312  1.0000
  O   O347      1.0  0.40295132035032494  0.36868833256699246  0.8046551691603889  1.0000
  O   O348      1.0  0.6247847916092292  0.20493390212915596  0.9483447364948243  1.0000
  O   O349      1.0  0.040604521752398565  0.47216443062396696  0.9637377010584454  1.0000
  O   O350      1.0  0.943980426406017  0.8058246797179164  0.821809063086285  1.0000
  O   O351      1.0  0.8124784373628872  0.19094420687257432  0.8575919975119384  1.0000
  O   O352      1.0  0.5918148499152157  0.6499358278526409  0.893656968177135  1.0000
  O   O353      1.0  0.6597970208128461  0.40794095660446483  0.9252544097082405  1.0000
  O   O354      1.0  0.04727208005517547  0.4032905629111002  0.9161086054461247  1.0000
  O   O355      1.0  0.8551787315219465  0.6590534469230327  0.7697746764935552  1.0000
  O   O356      1.0  0.41657378601729866  0.7396241534480767  0.815630792706318  1.0000
  O   O357      1.0  0.27057140679050184  0.4758459827860653  0.8893005919903979  1.0000
  O   O358      1.0  0.6323178519610625  0.9269785386676163  0.9296456065827622  1.0000
  O   O359      1.0  0.06924403447362287  0.7187436282264631  0.9703939096180468  1.0000
  O   O360      1.0  0.4100831777916272  0.8155061269049725  0.8529668946133475  1.0000
